@<TRIPOS>MOLECULE
generated by VMD
  343  467    1    0    0
SMALL
NO_CHARGES
****
Energy = 0

@<TRIPOS>ATOM
      1  C          1.8410    1.7750    0.0000    C    1  UNL        0.000000
      2  C          0.6050    2.4840    0.0000    C    1  UNL        0.000000
      3  C          0.6050    3.9080    0.0000    C    1  UNL        0.000000
      4  C          1.8390    4.6200    0.0000    C    1  UNL        0.000000
      5  C          4.3120    1.7750    0.0000    C    1  UNL        0.000000
      6  C          3.0760    2.4840    0.0000    C    1  UNL        0.000000
      7  C          3.0760    3.9080    0.0000    C    1  UNL        0.000000
      8  C          4.3100    4.6200    0.0000    C    1  UNL        0.000000
      9  C          6.7830    1.7750    0.0000    C    1  UNL        0.000000
     10  C          5.5470    2.4840    0.0000    C    1  UNL        0.000000
     11  C          5.5470    3.9080    0.0000    C    1  UNL        0.000000
     12  C          6.7810    4.6200    0.0000    C    1  UNL        0.000000
     13  C          9.2540    1.7750    0.0000    C    1  UNL        0.000000
     14  C          8.0180    2.4840    0.0000    C    1  UNL        0.000000
     15  C          8.0180    3.9080    0.0000    C    1  UNL        0.000000
     16  C          9.2520    4.6200    0.0000    C    1  UNL        0.000000
     17  C         11.7250    1.7750    0.0000    C    1  UNL        0.000000
     18  C         10.4890    2.4840    0.0000    C    1  UNL        0.000000
     19  C         10.4890    3.9080    0.0000    C    1  UNL        0.000000
     20  C         11.7230    4.6200    0.0000    C    1  UNL        0.000000
     21  C         14.1960    1.7750    0.0000    C    1  UNL        0.000000
     22  C         12.9600    2.4840    0.0000    C    1  UNL        0.000000
     23  C         12.9600    3.9080    0.0000    C    1  UNL        0.000000
     24  C         14.1940    4.6200    0.0000    C    1  UNL        0.000000
     25  C         16.6670    1.7750    0.0000    C    1  UNL        0.000000
     26  C         15.4310    2.4840    0.0000    C    1  UNL        0.000000
     27  C         15.4310    3.9080    0.0000    C    1  UNL        0.000000
     28  C         16.6650    4.6200    0.0000    C    1  UNL        0.000000
     29  C         19.1380    1.7750    0.0000    C    1  UNL        0.000000
     30  C         17.9020    2.4840    0.0000    C    1  UNL        0.000000
     31  C         17.9020    3.9080    0.0000    C    1  UNL        0.000000
     32  C         19.1360    4.6200    0.0000    C    1  UNL        0.000000
     33  C         21.6090    1.7750    0.0000    C    1  UNL        0.000000
     34  C         20.3730    2.4840    0.0000    C    1  UNL        0.000000
     35  C         20.3730    3.9080    0.0000    C    1  UNL        0.000000
     36  C         21.6070    4.6200    0.0000    C    1  UNL        0.000000
     37  C         24.0800    1.7750    0.0000    C    1  UNL        0.000000
     38  C         22.8440    2.4840    0.0000    C    1  UNL        0.000000
     39  C         22.8440    3.9080    0.0000    C    1  UNL        0.000000
     40  C         24.0780    4.6200    0.0000    C    1  UNL        0.000000
     41  C         26.5510    1.7750    0.0000    C    1  UNL        0.000000
     42  C         25.3150    2.4840    0.0000    C    1  UNL        0.000000
     43  C         25.3150    3.9080    0.0000    C    1  UNL        0.000000
     44  C         26.5490    4.6200    0.0000    C    1  UNL        0.000000
     45  C         29.0220    1.7750    0.0000    C    1  UNL        0.000000
     46  C         27.7860    2.4840    0.0000    C    1  UNL        0.000000
     47  C         27.7860    3.9080    0.0000    C    1  UNL        0.000000
     48  C         29.0200    4.6200    0.0000    C    1  UNL        0.000000
     49  C         30.2570    2.4840    0.0000    C    1  UNL        0.000000
     50  C         30.2570    3.9080    0.0000    C    1  UNL        0.000000
     51  C         31.4910    4.6200    0.0000    C    1  UNL        0.000000
     52  C          1.8410    6.0480    0.0000    C    1  UNL        0.000000
     53  C          0.6050    6.7570    0.0000    C    1  UNL        0.000000
     54  C          0.6050    8.1810    0.0000    C    1  UNL        0.000000
     55  C          1.8390    8.8930    0.0000    C    1  UNL        0.000000
     56  C          4.3120    6.0480    0.0000    C    1  UNL        0.000000
     57  C          3.0760    6.7570    0.0000    C    1  UNL        0.000000
     58  C          3.0760    8.1810    0.0000    C    1  UNL        0.000000
     59  C          4.3100    8.8930    0.0000    C    1  UNL        0.000000
     60  C          6.7830    6.0480    0.0000    C    1  UNL        0.000000
     61  C          5.5470    6.7570    0.0000    C    1  UNL        0.000000
     62  C          5.5470    8.1810    0.0000    C    1  UNL        0.000000
     63  C          6.7810    8.8930    0.0000    C    1  UNL        0.000000
     64  C          9.2540    6.0480    0.0000    C    1  UNL        0.000000
     65  C          8.0180    6.7570    0.0000    C    1  UNL        0.000000
     66  C          8.0180    8.1810    0.0000    C    1  UNL        0.000000
     67  C          9.2520    8.8930    0.0000    C    1  UNL        0.000000
     68  C         11.7250    6.0480    0.0000    C    1  UNL        0.000000
     69  C         10.4890    6.7570    0.0000    C    1  UNL        0.000000
     70  C         10.4890    8.1810    0.0000    C    1  UNL        0.000000
     71  C         11.7230    8.8930    0.0000    C    1  UNL        0.000000
     72  C         14.1960    6.0480    0.0000    C    1  UNL        0.000000
     73  C         12.9600    6.7570    0.0000    C    1  UNL        0.000000
     74  C         12.9600    8.1810    0.0000    C    1  UNL        0.000000
     75  C         14.1940    8.8930    0.0000    C    1  UNL        0.000000
     76  C         16.6670    6.0480    0.0000    C    1  UNL        0.000000
     77  C         15.4310    6.7570    0.0000    C    1  UNL        0.000000
     78  C         15.4310    8.1810    0.0000    C    1  UNL        0.000000
     79  C         16.6650    8.8930    0.0000    C    1  UNL        0.000000
     80  C         19.1380    6.0480    0.0000    C    1  UNL        0.000000
     81  C         17.9020    6.7570    0.0000    C    1  UNL        0.000000
     82  C         17.9020    8.1810    0.0000    C    1  UNL        0.000000
     83  C         19.1360    8.8930    0.0000    C    1  UNL        0.000000
     84  C         21.6090    6.0480    0.0000    C    1  UNL        0.000000
     85  C         20.3730    6.7570    0.0000    C    1  UNL        0.000000
     86  C         20.3730    8.1810    0.0000    C    1  UNL        0.000000
     87  C         21.6070    8.8930    0.0000    C    1  UNL        0.000000
     88  C         24.0800    6.0480    0.0000    C    1  UNL        0.000000
     89  C         22.8440    6.7570    0.0000    C    1  UNL        0.000000
     90  C         22.8440    8.1810    0.0000    C    1  UNL        0.000000
     91  C         24.0780    8.8930    0.0000    C    1  UNL        0.000000
     92  C         26.5510    6.0480    0.0000    C    1  UNL        0.000000
     93  C         25.3150    6.7570    0.0000    C    1  UNL        0.000000
     94  C         25.3150    8.1810    0.0000    C    1  UNL        0.000000
     95  C         26.5490    8.8930    0.0000    C    1  UNL        0.000000
     96  C         29.0220    6.0480    0.0000    C    1  UNL        0.000000
     97  C         27.7860    6.7570    0.0000    C    1  UNL        0.000000
     98  C         27.7860    8.1810    0.0000    C    1  UNL        0.000000
     99  C         29.0200    8.8930    0.0000    C    1  UNL        0.000000
    100  C         31.4930    6.0480    0.0000    C    1  UNL        0.000000
    101  C         30.2570    6.7570    0.0000    C    1  UNL        0.000000
    102  C         30.2570    8.1810    0.0000    C    1  UNL        0.000000
    103  C         31.4910    8.8930    0.0000    C    1  UNL        0.000000
    104  C          1.8410   10.3210    0.0000    C    1  UNL        0.000000
    105  C          0.6050   11.0300    0.0000    C    1  UNL        0.000000
    106  C          0.6050   12.4540    0.0000    C    1  UNL        0.000000
    107  C          1.8390   13.1660    0.0000    C    1  UNL        0.000000
    108  C          4.3120   10.3210    0.0000    C    1  UNL        0.000000
    109  C          3.0760   11.0300    0.0000    C    1  UNL        0.000000
    110  C          3.0760   12.4540    0.0000    C    1  UNL        0.000000
    111  C          4.3100   13.1660    0.0000    C    1  UNL        0.000000
    112  C          6.7830   10.3210    0.0000    C    1  UNL        0.000000
    113  C          5.5470   11.0300    0.0000    C    1  UNL        0.000000
    114  C          5.5470   12.4540    0.0000    C    1  UNL        0.000000
    115  C          6.7810   13.1660    0.0000    C    1  UNL        0.000000
    116  C          9.2540   10.3210    0.0000    C    1  UNL        0.000000
    117  C          8.0180   11.0300    0.0000    C    1  UNL        0.000000
    118  C          8.0180   12.4540    0.0000    C    1  UNL        0.000000
    119  C          9.2520   13.1660    0.0000    C    1  UNL        0.000000
    120  C         11.7250   10.3210    0.0000    C    1  UNL        0.000000
    121  C         10.4890   11.0300    0.0000    C    1  UNL        0.000000
    122  C         10.4890   12.4540    0.0000    C    1  UNL        0.000000
    123  C         11.7230   13.1660    0.0000    C    1  UNL        0.000000
    124  C         14.1960   10.3210    0.0000    C    1  UNL        0.000000
    125  C         12.9600   11.0300    0.0000    C    1  UNL        0.000000
    126  C         12.9600   12.4540    0.0000    C    1  UNL        0.000000
    127  C         14.1940   13.1660    0.0000    C    1  UNL        0.000000
    128  C         16.6670   10.3210    0.0000    C    1  UNL        0.000000
    129  C         15.4310   11.0300    0.0000    C    1  UNL        0.000000
    130  C         15.4310   12.4540    0.0000    C    1  UNL        0.000000
    131  C         16.6650   13.1660    0.0000    C    1  UNL        0.000000
    132  C         19.1380   10.3210    0.0000    C    1  UNL        0.000000
    133  C         17.9020   11.0300    0.0000    C    1  UNL        0.000000
    134  C         17.9020   12.4540    0.0000    C    1  UNL        0.000000
    135  C         19.1360   13.1660    0.0000    C    1  UNL        0.000000
    136  C         21.6090   10.3210    0.0000    C    1  UNL        0.000000
    137  C         20.3730   11.0300    0.0000    C    1  UNL        0.000000
    138  C         20.3730   12.4540    0.0000    C    1  UNL        0.000000
    139  C         21.6070   13.1660    0.0000    C    1  UNL        0.000000
    140  C         24.0800   10.3210    0.0000    C    1  UNL        0.000000
    141  C         22.8440   11.0300    0.0000    C    1  UNL        0.000000
    142  C         22.8440   12.4540    0.0000    C    1  UNL        0.000000
    143  C         24.0780   13.1660    0.0000    C    1  UNL        0.000000
    144  C         26.5510   10.3210    0.0000    C    1  UNL        0.000000
    145  C         25.3150   11.0300    0.0000    C    1  UNL        0.000000
    146  C         25.3150   12.4540    0.0000    C    1  UNL        0.000000
    147  C         26.5490   13.1660    0.0000    C    1  UNL        0.000000
    148  C         29.0220   10.3210    0.0000    C    1  UNL        0.000000
    149  C         27.7860   11.0300    0.0000    C    1  UNL        0.000000
    150  C         27.7860   12.4540    0.0000    C    1  UNL        0.000000
    151  C         29.0200   13.1660    0.0000    C    1  UNL        0.000000
    152  C         31.4930   10.3210    0.0000    C    1  UNL        0.000000
    153  C         30.2570   11.0300    0.0000    C    1  UNL        0.000000
    154  C         30.2570   12.4540    0.0000    C    1  UNL        0.000000
    155  C         31.4910   13.1660    0.0000    C    1  UNL        0.000000
    156  C          1.8410   14.5940    0.0000    C    1  UNL        0.000000
    157  C          0.6050   15.3030    0.0000    C    1  UNL        0.000000
    158  C          0.6050   16.7270    0.0000    C    1  UNL        0.000000
    159  C          1.8390   17.4390    0.0000    C    1  UNL        0.000000
    160  C          4.3120   14.5940    0.0000    C    1  UNL        0.000000
    161  C          3.0760   15.3030    0.0000    C    1  UNL        0.000000
    162  C          3.0760   16.7270    0.0000    C    1  UNL        0.000000
    163  C          4.3100   17.4390    0.0000    C    1  UNL        0.000000
    164  C          6.7830   14.5940    0.0000    C    1  UNL        0.000000
    165  C          5.5470   15.3030    0.0000    C    1  UNL        0.000000
    166  C          5.5470   16.7270    0.0000    C    1  UNL        0.000000
    167  C          6.7810   17.4390    0.0000    C    1  UNL        0.000000
    168  C          9.2540   14.5940    0.0000    C    1  UNL        0.000000
    169  C          8.0180   15.3030    0.0000    C    1  UNL        0.000000
    170  C          8.0180   16.7270    0.0000    C    1  UNL        0.000000
    171  C          9.2520   17.4390    0.0000    C    1  UNL        0.000000
    172  C         11.7250   14.5940    0.0000    C    1  UNL        0.000000
    173  C         10.4890   15.3030    0.0000    C    1  UNL        0.000000
    174  C         10.4890   16.7270    0.0000    C    1  UNL        0.000000
    175  C         11.7230   17.4390    0.0000    C    1  UNL        0.000000
    176  C         14.1960   14.5940    0.0000    C    1  UNL        0.000000
    177  C         12.9600   15.3030    0.0000    C    1  UNL        0.000000
    178  C         12.9600   16.7270    0.0000    C    1  UNL        0.000000
    179  C         14.1940   17.4390    0.0000    C    1  UNL        0.000000
    180  C         16.6670   14.5940    0.0000    C    1  UNL        0.000000
    181  C         15.4310   15.3030    0.0000    C    1  UNL        0.000000
    182  C         15.4310   16.7270    0.0000    C    1  UNL        0.000000
    183  C         16.6650   17.4390    0.0000    C    1  UNL        0.000000
    184  C         19.1380   14.5940    0.0000    C    1  UNL        0.000000
    185  C         17.9020   15.3030    0.0000    C    1  UNL        0.000000
    186  C         17.9020   16.7270    0.0000    C    1  UNL        0.000000
    187  C         19.1360   17.4390    0.0000    C    1  UNL        0.000000
    188  C         21.6090   14.5940    0.0000    C    1  UNL        0.000000
    189  C         20.3730   15.3030    0.0000    C    1  UNL        0.000000
    190  C         20.3730   16.7270    0.0000    C    1  UNL        0.000000
    191  C         21.6070   17.4390    0.0000    C    1  UNL        0.000000
    192  C         24.0800   14.5940    0.0000    C    1  UNL        0.000000
    193  C         22.8440   15.3030    0.0000    C    1  UNL        0.000000
    194  C         22.8440   16.7270    0.0000    C    1  UNL        0.000000
    195  C         24.0780   17.4390    0.0000    C    1  UNL        0.000000
    196  C         26.5510   14.5940    0.0000    C    1  UNL        0.000000
    197  C         25.3150   15.3030    0.0000    C    1  UNL        0.000000
    198  C         25.3150   16.7270    0.0000    C    1  UNL        0.000000
    199  C         26.5490   17.4390    0.0000    C    1  UNL        0.000000
    200  C         29.0220   14.5940    0.0000    C    1  UNL        0.000000
    201  C         27.7860   15.3030    0.0000    C    1  UNL        0.000000
    202  C         27.7860   16.7270    0.0000    C    1  UNL        0.000000
    203  C         29.0200   17.4390    0.0000    C    1  UNL        0.000000
    204  C         31.4930   14.5940    0.0000    C    1  UNL        0.000000
    205  C         30.2570   15.3030    0.0000    C    1  UNL        0.000000
    206  C         30.2570   16.7270    0.0000    C    1  UNL        0.000000
    207  C         31.4910   17.4390    0.0000    C    1  UNL        0.000000
    208  C          1.8410   18.8670    0.0000    C    1  UNL        0.000000
    209  C          0.6050   19.5760    0.0000    C    1  UNL        0.000000
    210  C          0.6050   21.0000    0.0000    C    1  UNL        0.000000
    211  C          1.8390   21.7120    0.0000    C    1  UNL        0.000000
    212  C          4.3120   18.8670    0.0000    C    1  UNL        0.000000
    213  C          3.0760   19.5760    0.0000    C    1  UNL        0.000000
    214  C          3.0760   21.0000    0.0000    C    1  UNL        0.000000
    215  C          4.3100   21.7120    0.0000    C    1  UNL        0.000000
    216  C          6.7830   18.8670    0.0000    C    1  UNL        0.000000
    217  C          5.5470   19.5760    0.0000    C    1  UNL        0.000000
    218  C          5.5470   21.0000    0.0000    C    1  UNL        0.000000
    219  C          6.7810   21.7120    0.0000    C    1  UNL        0.000000
    220  C          9.2540   18.8670    0.0000    C    1  UNL        0.000000
    221  C          8.0180   19.5760    0.0000    C    1  UNL        0.000000
    222  C          8.0180   21.0000    0.0000    C    1  UNL        0.000000
    223  C          9.2520   21.7120    0.0000    C    1  UNL        0.000000
    224  C         11.7250   18.8670    0.0000    C    1  UNL        0.000000
    225  C         10.4890   19.5760    0.0000    C    1  UNL        0.000000
    226  C         10.4890   21.0000    0.0000    C    1  UNL        0.000000
    227  C         11.7230   21.7120    0.0000    C    1  UNL        0.000000
    228  C         14.1960   18.8670    0.0000    C    1  UNL        0.000000
    229  C         12.9600   19.5760    0.0000    C    1  UNL        0.000000
    230  C         12.9600   21.0000    0.0000    C    1  UNL        0.000000
    231  C         14.1940   21.7120    0.0000    C    1  UNL        0.000000
    232  C         16.6670   18.8670    0.0000    C    1  UNL        0.000000
    233  C         15.4310   19.5760    0.0000    C    1  UNL        0.000000
    234  C         15.4310   21.0000    0.0000    C    1  UNL        0.000000
    235  C         16.6650   21.7120    0.0000    C    1  UNL        0.000000
    236  C         19.1380   18.8670    0.0000    C    1  UNL        0.000000
    237  C         17.9020   19.5760    0.0000    C    1  UNL        0.000000
    238  C         17.9020   21.0000    0.0000    C    1  UNL        0.000000
    239  C         19.1360   21.7120    0.0000    C    1  UNL        0.000000
    240  C         21.6090   18.8670    0.0000    C    1  UNL        0.000000
    241  C         20.3730   19.5760    0.0000    C    1  UNL        0.000000
    242  C         20.3730   21.0000    0.0000    C    1  UNL        0.000000
    243  C         21.6070   21.7120    0.0000    C    1  UNL        0.000000
    244  C         24.0800   18.8670    0.0000    C    1  UNL        0.000000
    245  C         22.8440   19.5760    0.0000    C    1  UNL        0.000000
    246  C         22.8440   21.0000    0.0000    C    1  UNL        0.000000
    247  C         24.0780   21.7120    0.0000    C    1  UNL        0.000000
    248  C         26.5510   18.8670    0.0000    C    1  UNL        0.000000
    249  C         25.3150   19.5760    0.0000    C    1  UNL        0.000000
    250  C         25.3150   21.0000    0.0000    C    1  UNL        0.000000
    251  C         26.5490   21.7120    0.0000    C    1  UNL        0.000000
    252  C         29.0220   18.8670    0.0000    C    1  UNL        0.000000
    253  C         27.7860   19.5760    0.0000    C    1  UNL        0.000000
    254  C         27.7860   21.0000    0.0000    C    1  UNL        0.000000
    255  C         29.0200   21.7120    0.0000    C    1  UNL        0.000000
    256  C         31.4930   18.8670    0.0000    C    1  UNL        0.000000
    257  C         30.2570   19.5760    0.0000    C    1  UNL        0.000000
    258  C         30.2570   21.0000    0.0000    C    1  UNL        0.000000
    259  O         25.3150    8.1810   -1.7000    O    1  UNL        0.000000
    260  O         24.0780    8.8930    1.7000    O    1  UNL        0.000000
    261  O         30.2570    2.4840    1.7000    O    1  UNL        0.000000
    262  O         29.0220    1.7750   -1.7000    O    1  UNL        0.000000
    263  O         21.6090   18.8670   -1.7000    O    1  UNL        0.000000
    264  O         21.6070   17.4390    1.7000    O    1  UNL        0.000000
    265  O          9.2540   10.3210    1.7000    O    1  UNL        0.000000
    266  O          9.2520    8.8930   -1.7000    O    1  UNL        0.000000
    267  O          8.0180   12.4540    1.7000    O    1  UNL        0.000000
    268  O          6.7810   13.1660   -1.7000    O    1  UNL        0.000000
    269  O         17.9020   12.4540    1.7000    O    1  UNL        0.000000
    270  O         16.6650   13.1660   -1.7000    O    1  UNL        0.000000
    271  O         19.1360   21.7120    1.7000    O    1  UNL        0.000000
    272  O         17.9020   21.0000   -1.7000    O    1  UNL        0.000000
    273  O         22.8440    3.9080   -1.7000    O    1  UNL        0.000000
    274  O         21.6070    4.6200    1.7000    O    1  UNL        0.000000
    275  O         30.2570   19.5760   -1.7000    O    1  UNL        0.000000
    276  O         29.0220   18.8670    1.7000    O    1  UNL        0.000000
    277  O          0.6050   11.0300    1.7000    O    1  UNL        0.000000
    278  O          1.8410   10.3210   -1.7000    O    1  UNL        0.000000
    279  O         27.7860   21.0000   -1.7000    O    1  UNL        0.000000
    280  O         26.5490   21.7120    1.7000    O    1  UNL        0.000000
    281  O         25.3150    3.9080    1.7000    O    1  UNL        0.000000
    282  O         25.3150    2.4840   -1.7000    O    1  UNL        0.000000
    283  O         19.1370   18.1530    1.2830    O    1  UNL        0.000000
    284  O         12.3430   14.9480    1.2830    O    1  UNL        0.000000
    285  O          2.4580   12.8100    1.2830    O    1  UNL        0.000000
    286  O         26.5500   13.8800    1.2830    O    1  UNL        0.000000
    287  O         12.3430    6.4020    1.2830    O    1  UNL        0.000000
    288  O         30.8740    8.5370   -1.2830    O    1  UNL        0.000000
    289  O          2.4580   19.2210    1.2830    O    1  UNL        0.000000
    290  O          7.4010    2.1300    1.2830    O    1  UNL        0.000000
    291  O          6.1640   21.3560    1.2830    O    1  UNL        0.000000
    292  O         14.8120   21.3560   -1.2830    O    1  UNL        0.000000
    293  O         27.1690   10.6750    1.2830    O    1  UNL        0.000000
    294  O         13.5780    2.1300   -1.2830    O    1  UNL        0.000000
    295  O         12.9600   11.7420    1.2830    O    1  UNL        0.000000
    296  O         22.2270   10.6750   -1.2830    O    1  UNL        0.000000
    297  O         22.2260   21.3560    1.2830    O    1  UNL        0.000000
    298  O          6.7820   18.1530    1.2830    O    1  UNL        0.000000
    299  O          8.6360   14.9480    1.2830    O    1  UNL        0.000000
    300  O          3.0760   16.7270   -1.7000    O    1  UNL        0.000000
    301  O         14.1940   17.4390    1.7000    O    1  UNL        0.000000
    302  O         31.4930   14.5940   -1.7000    O    1  UNL        0.000000
    303  O         17.9020   15.3030   -1.7000    O    1  UNL        0.000000
    304  O         17.9020    8.1810   -1.7000    O    1  UNL        0.000000
    305  O         19.1380   10.3210   -1.7000    O    1  UNL        0.000000
    306  O         24.0780   17.4390   -1.7000    O    1  UNL        0.000000
    307  O          4.3120   14.5940   -1.7000    O    1  UNL        0.000000
    308  O         16.6670    6.0480   -1.7000    O    1  UNL        0.000000
    309  O         24.0780   13.1660   -1.7000    O    1  UNL        0.000000
    310  H         24.9150    8.1810   -2.5000    H    1  UNL        0.000000
    311  H         24.2780    9.2390    2.5000    H    1  UNL        0.000000
    312  H         30.6570    2.4840    2.5000    H    1  UNL        0.000000
    313  H         29.2220    1.4290   -2.5000    H    1  UNL        0.000000
    314  H         21.4090   19.2130   -2.5000    H    1  UNL        0.000000
    315  H         21.8070   17.7850    2.5000    H    1  UNL        0.000000
    316  H          9.0540   10.6670    2.5000    H    1  UNL        0.000000
    317  H          9.4520    8.5470   -2.5000    H    1  UNL        0.000000
    318  H          8.2180   12.1080    2.5000    H    1  UNL        0.000000
    319  H          6.3810   13.1660   -2.5000    H    1  UNL        0.000000
    320  H         17.7020   12.8000    2.5000    H    1  UNL        0.000000
    321  H         16.8650   13.5120   -2.5000    H    1  UNL        0.000000
    322  H         19.3360   21.3660    2.5000    H    1  UNL        0.000000
    323  H         18.1020   21.3460   -2.5000    H    1  UNL        0.000000
    324  H         23.2440    3.9080   -2.5000    H    1  UNL        0.000000
    325  H         21.4070    4.9660    2.5000    H    1  UNL        0.000000
    326  H         30.6570   19.5760   -2.5000    H    1  UNL        0.000000
    327  H         29.2220   19.2130    2.5000    H    1  UNL        0.000000
    328  H          0.8050   11.3760    2.5000    H    1  UNL        0.000000
    329  H          1.4410   10.3210   -2.5000    H    1  UNL        0.000000
    330  H         27.5860   21.3460   -2.5000    H    1  UNL        0.000000
    331  H         26.7490   21.3660    2.5000    H    1  UNL        0.000000
    332  H         25.1150    4.2540    2.5000    H    1  UNL        0.000000
    333  H         25.7150    2.4840   -2.5000    H    1  UNL        0.000000
    334  H          2.8760   17.0730   -2.5000    H    1  UNL        0.000000
    335  H         13.9940   17.7850    2.5000    H    1  UNL        0.000000
    336  H         31.0930   14.5940   -2.5000    H    1  UNL        0.000000
    337  H         18.3020   15.3030   -2.5000    H    1  UNL        0.000000
    338  H         17.7020    7.8350   -2.5000    H    1  UNL        0.000000
    339  H         18.9380   10.6670   -2.5000    H    1  UNL        0.000000
    340  H         24.2780   17.0930   -2.5000    H    1  UNL        0.000000
    341  H          4.1120   14.9400   -2.5000    H    1  UNL        0.000000
    342  H         16.8670    5.7020   -2.5000    H    1  UNL        0.000000
    343  H         23.8780   12.8200   -2.5000    H    1  UNL        0.000000
@<TRIPOS>BOND
    1     1     6  1
    2     1     2  1
    3     2     3  1
    4     3     4  1
    5     4     7  1
    6     4    52  1
    7     5     6  1
    8     5    10  1
    9     6     7  1
   10     7     8  1
   11     8    11  1
   12     8    56  1
   13     9    10  1
   14     9    14  1
   15     9   290  1
   16    10    11  1
   17    11    12  1
   18    12    15  1
   19    12    60  1
   20    13    18  1
   21    13    14  1
   22    14   290  1
   23    14    15  1
   24    15    16  1
   25    16    19  1
   26    16    64  1
   27    17    18  1
   28    17    22  1
   29    18    19  1
   30    19    20  1
   31    20    23  1
   32    20    68  1
   33    21    26  1
   34    21    22  1
   35    21   294  1
   36    22    23  1
   37    22   294  1
   38    23    24  1
   39    24    27  1
   40    24    72  1
   41    25    26  1
   42    25    30  1
   43    26    27  1
   44    27    28  1
   45    28    31  1
   46    28    76  1
   47    29    30  1
   48    29    34  1
   49    30    31  1
   50    31    32  1
   51    32    35  1
   52    32    80  1
   53    33    38  1
   54    33    34  1
   55    34    35  1
   56    35    36  1
   57    36    39  1
   58    36   274  1
   59    36    84  1
   60    37    38  1
   61    37    42  1
   62    38    39  1
   63    39    40  1
   64    39   273  1
   65    40    43  1
   66    40    88  1
   67    41    42  1
   68    41    46  1
   69    42    43  1
   70    42   282  1
   71    43    44  1
   72    43   281  1
   73    44    47  1
   74    44    92  1
   75    45    46  1
   76    45    49  1
   77    45   262  1
   78    46    47  1
   79    47    48  1
   80    48    50  1
   81    48    96  1
   82    49   261  1
   83    49    50  1
   84    50    51  1
   85    51   100  1
   86    52    57  1
   87    52    53  1
   88    53    54  1
   89    54    55  1
   90    55   104  1
   91    55    58  1
   92    56    57  1
   93    56    61  1
   94    57    58  1
   95    58    59  1
   96    59   108  1
   97    59    62  1
   98    60    61  1
   99    60    65  1
  100    61    62  1
  101    62    63  1
  102    63   112  1
  103    63    66  1
  104    64    69  1
  105    64    65  1
  106    65    66  1
  107    66    67  1
  108    67   116  1
  109    67    70  1
  110    67   266  1
  111    68   287  1
  112    68    69  1
  113    68    73  1
  114    69    70  1
  115    70    71  1
  116    71   120  1
  117    71    74  1
  118    72    77  1
  119    72    73  1
  120    73   287  1
  121    73    74  1
  122    74    75  1
  123    75   124  1
  124    75    78  1
  125    76    77  1
  126    76    81  1
  127    76   308  1
  128    77    78  1
  129    78    79  1
  130    79   128  1
  131    79    82  1
  132    80    81  1
  133    80    85  1
  134    81    82  1
  135    82    83  1
  136    82   304  1
  137    83   132  1
  138    83    86  1
  139    84    89  1
  140    84    85  1
  141    85    86  1
  142    86    87  1
  143    87   136  1
  144    87    90  1
  145    88    89  1
  146    88    93  1
  147    89    90  1
  148    90    91  1
  149    91   140  1
  150    91   260  1
  151    91    94  1
  152    92    93  1
  153    92    97  1
  154    93    94  1
  155    94    95  1
  156    94   259  1
  157    95   144  1
  158    95    98  1
  159    96    97  1
  160    96   101  1
  161    97    98  1
  162    98    99  1
  163    99   148  1
  164    99   102  1
  165   100   101  1
  166   101   102  1
  167   102   103  1
  168   102   288  1
  169   103   152  1
  170   103   288  1
  171   104   109  1
  172   104   105  1
  173   104   278  1
  174   105   277  1
  175   105   106  1
  176   106   107  1
  177   107   110  1
  178   107   285  1
  179   107   156  1
  180   108   109  1
  181   108   113  1
  182   109   110  1
  183   110   285  1
  184   110   111  1
  185   111   114  1
  186   111   160  1
  187   112   113  1
  188   112   117  1
  189   113   114  1
  190   114   115  1
  191   115   118  1
  192   115   164  1
  193   115   268  1
  194   116   265  1
  195   116   121  1
  196   116   117  1
  197   117   118  1
  198   118   267  1
  199   118   119  1
  200   119   122  1
  201   119   168  1
  202   120   121  1
  203   120   125  1
  204   121   122  1
  205   122   123  1
  206   123   126  1
  207   123   172  1
  208   124   129  1
  209   124   125  1
  210   125   295  1
  211   125   126  1
  212   126   127  1
  213   126   295  1
  214   127   130  1
  215   127   176  1
  216   128   129  1
  217   128   133  1
  218   129   130  1
  219   130   131  1
  220   131   134  1
  221   131   180  1
  222   131   270  1
  223   132   133  1
  224   132   137  1
  225   132   305  1
  226   133   134  1
  227   134   135  1
  228   134   269  1
  229   135   138  1
  230   135   184  1
  231   136   141  1
  232   136   137  1
  233   136   296  1
  234   137   138  1
  235   138   139  1
  236   139   142  1
  237   139   188  1
  238   140   141  1
  239   140   145  1
  240   141   142  1
  241   141   296  1
  242   142   143  1
  243   143   146  1
  244   143   192  1
  245   143   309  1
  246   144   145  1
  247   144   149  1
  248   144   293  1
  249   145   146  1
  250   146   147  1
  251   147   286  1
  252   147   150  1
  253   147   196  1
  254   148   149  1
  255   148   153  1
  256   149   293  1
  257   149   150  1
  258   150   151  1
  259   151   154  1
  260   151   200  1
  261   152   153  1
  262   153   154  1
  263   154   155  1
  264   155   204  1
  265   156   161  1
  266   156   157  1
  267   157   158  1
  268   158   159  1
  269   159   162  1
  270   159   208  1
  271   160   161  1
  272   160   165  1
  273   160   307  1
  274   161   162  1
  275   162   163  1
  276   162   300  1
  277   163   166  1
  278   163   212  1
  279   164   165  1
  280   164   169  1
  281   165   166  1
  282   166   167  1
  283   167   170  1
  284   167   216  1
  285   167   298  1
  286   168   173  1
  287   168   169  1
  288   168   299  1
  289   169   299  1
  290   169   170  1
  291   170   171  1
  292   171   174  1
  293   171   220  1
  294   172   284  1
  295   172   173  1
  296   172   177  1
  297   173   174  1
  298   174   175  1
  299   175   178  1
  300   175   224  1
  301   176   181  1
  302   176   177  1
  303   177   284  1
  304   177   178  1
  305   178   179  1
  306   179   182  1
  307   179   301  1
  308   179   228  1
  309   180   181  1
  310   180   185  1
  311   181   182  1
  312   182   183  1
  313   183   186  1
  314   183   232  1
  315   184   185  1
  316   184   189  1
  317   185   186  1
  318   185   303  1
  319   186   187  1
  320   187   190  1
  321   187   236  1
  322   187   283  1
  323   188   193  1
  324   188   189  1
  325   189   190  1
  326   190   191  1
  327   191   194  1
  328   191   264  1
  329   191   240  1
  330   192   193  1
  331   192   197  1
  332   193   194  1
  333   194   195  1
  334   195   198  1
  335   195   244  1
  336   195   306  1
  337   196   197  1
  338   196   201  1
  339   196   286  1
  340   197   198  1
  341   198   199  1
  342   199   202  1
  343   199   248  1
  344   200   201  1
  345   200   205  1
  346   201   202  1
  347   202   203  1
  348   203   206  1
  349   203   252  1
  350   204   205  1
  351   204   302  1
  352   205   206  1
  353   206   207  1
  354   207   256  1
  355   208   289  1
  356   208   213  1
  357   208   209  1
  358   209   210  1
  359   210   211  1
  360   211   214  1
  361   212   213  1
  362   212   217  1
  363   213   214  1
  364   213   289  1
  365   214   215  1
  366   215   218  1
  367   216   298  1
  368   216   217  1
  369   216   221  1
  370   217   218  1
  371   218   219  1
  372   218   291  1
  373   219   291  1
  374   219   222  1
  375   220   225  1
  376   220   221  1
  377   221   222  1
  378   222   223  1
  379   223   226  1
  380   224   225  1
  381   224   229  1
  382   225   226  1
  383   226   227  1
  384   227   230  1
  385   228   233  1
  386   228   229  1
  387   229   230  1
  388   230   231  1
  389   231   234  1
  390   231   292  1
  391   232   233  1
  392   232   237  1
  393   233   234  1
  394   234   235  1
  395   234   292  1
  396   235   238  1
  397   236   283  1
  398   236   237  1
  399   236   241  1
  400   237   238  1
  401   238   239  1
  402   238   272  1
  403   239   271  1
  404   239   242  1
  405   240   245  1
  406   240   241  1
  407   240   263  1
  408   241   242  1
  409   242   243  1
  410   243   297  1
  411   243   246  1
  412   244   245  1
  413   244   249  1
  414   245   246  1
  415   246   297  1
  416   246   247  1
  417   247   250  1
  418   248   249  1
  419   248   253  1
  420   249   250  1
  421   250   251  1
  422   251   280  1
  423   251   254  1
  424   252   276  1
  425   252   253  1
  426   252   257  1
  427   253   254  1
  428   254   255  1
  429   254   279  1
  430   255   258  1
  431   256   257  1
  432   257   258  1
  433   257   275  1
  434   259   310  1
  435   260   311  1
  436   261   312  1
  437   262   313  1
  438   263   314  1
  439   264   315  1
  440   265   316  1
  441   266   317  1
  442   267   318  1
  443   268   319  1
  444   269   320  1
  445   270   321  1
  446   271   322  1
  447   272   323  1
  448   273   324  1
  449   274   325  1
  450   275   326  1
  451   276   327  1
  452   277   328  1
  453   278   329  1
  454   279   330  1
  455   280   331  1
  456   281   332  1
  457   282   333  1
  458   300   334  1
  459   301   335  1
  460   302   336  1
  461   303   337  1
  462   304   338  1
  463   305   339  1
  464   306   340  1
  465   307   341  1
  466   308   342  1
  467   309   343  1

@<TRIPOS>SUBSTRUCTURE
1 ****        1 TEMP                        0 ****  **** 0 ROOT
